LTspice 24.0.12 for Windows
Circuit: * C:\Users\ericz\Documents\stepper-motor-driver\Draft2.asc
Start Time: Wed Dec  3 18:28:39 2025
solver = Normal
Maximum thread count: 32
tnom = 27
temp = 27
method = modified trap
Direct Newton iteration for .op point succeeded.
Total elapsed time: 0.164 seconds.

