LTspice 24.0.12 for Windows
Circuit: * C:\Users\ericz\Documents\stepper-motor-driver\Draft1.asc
Start Time: Mon Dec  1 23:26:51 2025
solver = Normal
Maximum thread count: 32
tnom = 27
temp = 27
method = modified trap
Direct Newton iteration for .op point succeeded.
Total elapsed time: 0.139 seconds.

